
Note: No compatibility mode selected!


Circuit: KiCad schematic

ASCII raw file "C:\Users\tassi\git\ANS-VCO-Projekt-2026\net.out"
Doing analysis at TEMP = 27.000000 and TNOM = 27.000000

Using SPARSE 1.3 as Direct Linear Solver
No. of Data Columns : 14  

No. of Data Rows : 101

Total analysis time (seconds) = 0.004659

Total elapsed time (seconds) = 0.056 

Total DRAM available = 15984.969 MB.
DRAM currently available = 3385.961 MB.
Maximum ngspice program size =   28.074 MB.
Current ngspice program size =   28.074 MB.

