Circuit: * C:\Users\torbe\Documents\2.0 Studium\6.0 Semester\M6.10 Analoge Schaltungen (ANS)\ANS-VCO-Projekt-2026\sim\Wien-VCO.asc

Warning: Multiple definitions of model "1n750" Type: Diode
Direct Newton iteration for .op point succeeded.
.step v1=0
Heightened Def Con from 0.000572003 to 0.000572003
Heightened Def Con from 0.000572003 ++to 0.000572003
Heightened Def Con from 0.000572003 +++to 0.000572003
Heightened Def Con from 0.000572443 to 0.000572443
Heightened Def Con from 0.000572443 to 0.000572443
Heightened Def Con from 0.000572443 to 0.000572443
Heightened Def Con from 0.000572443 ++++to 0.000572443
Heightened Def Con from 0.000572443 to 0.000572443
Heightened Def Con from 0.000572443 to 0.000572443
Heightened Def Con from 0.00057457 to 0.00057457
Heightened Def Con from 0.00057457 to 0.00057457
Heightened Def Con from 0.000575066 +++to 0.000575066
Heightened Def Con from 0.000575066 to 0.000575066
Heightened Def Con from 0.000575066 to 0.000575066
Heightened Def Con from 0.000575164 to 0.000575164
Heightened Def Con from 0.000575164 to 0.000575164
Heightened Def Con from 0.000575164 to 0.000575164
Heightened Def Con from 0.000575164 to 0.000575164
Heightened Def Con from 0.000575461 to 0.000575461
Heightened Def Con from 0.000575953 to 0.000575953
Heightened Def Con from 0.000575953 to 0.000575953
Heightened Def Con from 0.000578126 to 0.000578126
Heightened Def Con from 0.000578126 to 0.000578126
Heightened Def Con from 0.000578126 +++++++++to 0.000578126
Heightened Def Con from 0.000578824 to 0.000578824
Heightened Def Con from 0.000578824 to 0.000578824
Heightened Def Con from 0.000578824 ++to 0.000578824
Heightened Def Con from 0.000579817 to 0.000579817
Heightened Def Con from 0.000579817 to 0.000579817
Heightened Def Con from 0.000579817 to 0.000579817
Heightened Def Con from 0.000579817 to 0.000579817
Heightened Def Con from 0.000579817 to 0.000579817
Heightened Def Con from 0.000579817 ++++to 0.000579817
Heightened Def Con from 0.000580112 +to 0.000580112
Heightened Def Con from 0.000580112 to 0.000580112
Heightened Def Con from 0.000580413 +to 0.000580413
Heightened Def Con from 0.000580413 to 0.000580413
Heightened Def Con from 0.000581807 +to 0.000581807
Heightened Def Con from 0.000581807 ++to 0.000581807
Heightened Def Con from 0.000581807 +++++to 0.000581807
Heightened Def Con from 0.000581807 +++to 0.000581807
Heightened Def Con from 0.000582102 ++to 0.000582102
Heightened Def Con from 0.000582102 to 0.000582102
Heightened Def Con from 0.000582102 to 0.000582102
Heightened Def Con from 0.000582899 to 0.000582899
Heightened Def Con from 0.00058689 to 0.00058689
Heightened Def Con from 0.00058689 to 0.00058689
Heightened Def Con from 0.000587392 ++to 0.000587392
Heightened Def Con from 0.000587392 to 0.000587392
Heightened Def Con from 0.000587392 to 0.000587392
Heightened Def Con from 0.000587392 to 0.000587392
Heightened Def Con from 0.000587392 to 0.000587392
Heightened Def Con from 0.000588887 +to 0.000588887
Heightened Def Con from 0.000588887 to 0.000588887
Heightened Def Con from 0.000589287 to 0.000589287
Heightened Def Con from 0.000590789 to 0.000590789
Heightened Def Con from 0.000592685 to 0.000592685
Heightened Def Con from 0.000593285 to 0.000593285
Heightened Def Con from 0.000594684 to 0.000594684
Heightened Def Con from 0.000594684 ++++to 0.000594684
Heightened Def Con from 0.000594684 to 0.000594684
Heightened Def Con from 0.000594787 to 0.000594787
Heightened Def Con from 0.000595387 to 0.000595387
Heightened Def Con from 0.000595587 to 0.000595587
Heightened Def Con from 0.000595587 to 0.000595587
Heightened Def Con from 0.000595587 to 0.000595587
Heightened Def Con from 0.000597483 +to 0.000597483
Heightened Def Con from 0.000597483 ++to 0.000597483
Heightened Def Con from 0.000597483 to 0.000597483
Heightened Def Con from 0.000598585 to 0.000598585
Heightened Def Con from 0.000598585 +++to 0.000598585
Heightened Def Con from 0.000598585 to 0.000598585
Heightened Def Con from 0.000599584 +to 0.000599584
Heightened Def Con from 0.000599584 to 0.000599584
Heightened Def Con from 0.000599584 to 0.000599584
Heightened Def Con from 0.000605878 +to 0.000605878
Heightened Def Con from 0.000605878 to 0.000605878
Heightened Def Con from 0.000606878 ++to 0.000606878
Heightened Def Con from 0.000606878 to 0.000606878
Heightened Def Con from 0.000607477 to 0.000607477
Heightened Def Con from 0.000608979 +++++++++++++++++++to 0.00060898
Heightened Def Con from 0.000609876 to 0.000609876
Heightened Def Con from 0.000609876 to 0.000609876
Heightened Def Con from 0.000609876 +++to 0.000609876
Heightened Def Con from 0.000609876 to 0.000609876
Heightened Def Con from 0.000611675 ++++++++to 0.000611675
Heightened Def Con from 0.000611675 to 0.000611675
Heightened Def Con from 0.000614074 +to 0.000614074
Heightened Def Con from 0.000614074 to 0.000614074
Heightened Def Con from 0.000616575 to 0.000616575
Heightened Def Con from 0.000618573 to 0.000618573
Heightened Def Con from 0.000618573 to 0.000618573
Heightened Def Con from 0.000618573 ++to 0.000618573
Heightened Def Con from 0.000618573 to 0.000618573
Heightened Def Con from 0.000618573 +to 0.000618573
Heightened Def Con from 0.000618573 ++++to 0.000618573
Heightened Def Con from 0.000618573 +to 0.000618573
Heightened Def Con from 0.000618573 to 0.000618573
Heightened Def Con from 0.00062027 ++++++to 0.00062027
Heightened Def Con from 0.00062027 to 0.00062027
Heightened Def Con from 0.000620669 to 0.000620669
Heightened Def Con from 0.000620669 to 0.000620669
Heightened Def Con from 0.000620869 to 0.000620869
Heightened Def Con from 0.000621469 to 0.000621469
Heightened Def Con from 0.000621469 +to 0.000621469
Heightened Def Con from 0.000621469 ++to 0.000621469
Heightened Def Con from 0.000621469 to 0.000621469
Heightened Def Con from 0.000621572 +to 0.000621572
Heightened Def Con from 0.000621572 to 0.000621572
Heightened Def Con from 0.000622469 to 0.000622469
Heightened Def Con from 0.000622869 to 0.000622869
Heightened Def Con from 0.000622869 to 0.000622869
Heightened Def Con from 0.000625468 +to 0.000625468
Heightened Def Con from 0.000625468 to 0.000625468
Heightened Def Con from 0.000625468 +++++to 0.000625468
Heightened Def Con from 0.000625468 to 0.000625468
Heightened Def Con from 0.000627569 to 0.000627569
Heightened Def Con from 0.000628465 to 0.000628465
Heightened Def Con from 0.000628465 to 0.000628465
Heightened Def Con from 0.000628465 to 0.000628465
Heightened Def Con from 0.000628465 +++to 0.000628465
Heightened Def Con from 0.000628465 to 0.000628465
Heightened Def Con from 0.000629465 to 0.000629465
Heightened Def Con from 0.000632765 to 0.000632765
Heightened Def Con from 0.000632862 +to 0.000632862
Heightened Def Con from 0.000632862 +++to 0.000632862
Heightened Def Con from 0.000633862 ++++++++++++to 0.000633862
Heightened Def Con from 0.000633862 +++++++++++++to 0.000633862
Heightened Def Con from 0.000633862 +++++++++++++to 0.000633862
Heightened Def Con from 0.000635564 to 0.000635564
Heightened Def Con from 0.000635861 ++++to 0.000635861
Heightened Def Con from 0.000635861 to 0.000635861
Heightened Def Con from 0.000636261 to 0.000636261
Heightened Def Con from 0.000636261 to 0.000636261
Heightened Def Con from 0.000636261 +++to 0.000636261
Heightened Def Con from 0.000636261 +to 0.000636261
Heightened Def Con from 0.000636261 ++to 0.000636261
Heightened Def Con from 0.000636261 to 0.000636261
Heightened Def Con from 0.000636461 ++++++to 0.000636461
Heightened Def Con from 0.000636861 +++to 0.000636861
Heightened Def Con from 0.000636861 +++++to 0.000636861
Heightened Def Con from 0.000636861 to 0.000636861
Heightened Def Con from 0.000636861 to 0.000636861
Heightened Def Con from 0.000636963 to 0.000636963
Heightened Def Con from 0.000636963 +++to 0.000636963
Heightened Def Con from 0.000636963 to 0.000636963
Heightened Def Con from 0.00063846 +++++++to 0.00063846
Heightened Def Con from 0.00063846 ++++++++++++to 0.00063846
Heightened Def Con from 0.00063846 +++++++++++to 0.00063846
Heightened Def Con from 0.00063846 ++++++++++to 0.00063846
Heightened Def Con from 0.00063846 ++++++++++to 0.00063846
Heightened Def Con from 0.00063846 ++++++++++to 0.00063846
Heightened Def Con from 0.00063846 ++++++++++to 0.00063846
Heightened Def Con from 0.00063846 +++++++++to 0.00063846
Heightened Def Con from 0.00063846 to 0.00063846
Heightened Def Con from 0.00063866 ++to 0.00063866
Heightened Def Con from 0.00063866 to 0.00063866
Heightened Def Con from 0.000641058 +++++++++to 0.000641058
Heightened Def Con from 0.000641058 to 0.000641058
Heightened Def Con from 0.00064136 to 0.00064136
Heightened Def Con from 0.00064136 to 0.00064136
Heightened Def Con from 0.000641458 ++to 0.000641458
Heightened Def Con from 0.000641458 to 0.000641458
Heightened Def Con from 0.000642857 +++++++to 0.000642857
Heightened Def Con from 0.000643759 to 0.000643759
Heightened Def Con from 0.000644056 +++++to 0.000644056
Heightened Def Con from 0.000644056 to 0.000644056
Heightened Def Con from 0.000644656 to 0.000644656
Heightened Def Con from 0.000644656 to 0.000644656
Heightened Def Con from 0.000644656 ++++++++to 0.000644656
Heightened Def Con from 0.000644656 to 0.000644656
Heightened Def Con from 0.000645056 to 0.000645056
Heightened Def Con from 0.000648455 +++++++to 0.000648455
Heightened Def Con from 0.000650254 to 0.000650254
Heightened Def Con from 0.000650254 to 0.000650254
Heightened Def Con from 0.000650254 to 0.000650254
Heightened Def Con from 0.000650254 to 0.000650254
Heightened Def Con from 0.000650254 ++++++to 0.000650254
Heightened Def Con from 0.000650254 +to 0.000650254
Heightened Def Con from 0.000650357 to 0.000650357
Heightened Def Con from 0.000651957 to 0.000651957
Heightened Def Con from 0.000651957 to 0.000651957
Heightened Def Con from 0.000654253 +to 0.000654253
Heightened Def Con from 0.000654253 to 0.000654253
Heightened Def Con from 0.000654653 to 0.000654653
Heightened Def Con from 0.000655453 to 0.000655453
Heightened Def Con from 0.000655453 ++++++++++++to 0.000655453
Heightened Def Con from 0.000655453 +++++++++++to 0.000655453
Heightened Def Con from 0.000655453 ++++++++++to 0.000655453
Heightened Def Con from 0.000655453 ++++++++++to 0.000655453
Heightened Def Con from 0.000655453 ++++++++++to 0.000655453
Heightened Def Con from 0.000655453 ++++++++++to 0.000655453
Heightened Def Con from 0.000655453 +++++++++to 0.000655453
Heightened Def Con from 0.000655453 to 0.000655453
Heightened Def Con from 0.000656155 to 0.000656155
Heightened Def Con from 0.000656155 to 0.000656155
Heightened Def Con from 0.000656155 ++to 0.000656155
Heightened Def Con from 0.000656155 to 0.000656155
Heightened Def Con from 0.000656155 to 0.000656155
Heightened Def Con from 0.000656155 +to 0.000656155
Heightened Def Con from 0.000658155 ++to 0.000658155
Heightened Def Con from 0.000658155 +++to 0.000658155
Heightened Def Con from 0.000658155 +++to 0.000658155
Heightened Def Con from 0.000658155 to 0.000658155
Heightened Def Con from 0.000658252 to 0.000658252
Heightened Def Con from 0.000658252 to 0.000658252
Heightened Def Con from 0.000658252 +to 0.000658252
Heightened Def Con from 0.000658252 to 0.000658252
Heightened Def Con from 0.000658252 +++++to 0.000658252
Heightened Def Con from 0.000658252 to 0.000658252
Heightened Def Con from 0.000658252 to 0.000658252
Heightened Def Con from 0.000658252 to 0.000658252
Heightened Def Con from 0.000659052 to 0.000659052
Heightened Def Con from 0.000659252 ++++++to 0.000659252
Heightened Def Con from 0.000659252 to 0.000659252
Heightened Def Con from 0.000659852 to 0.000659852
Heightened Def Con from 0.000659852 to 0.000659852
Heightened Def Con from 0.000661154 to 0.000661154
Heightened Def Con from 0.000661154 to 0.000661154
Heightened Def Con from 0.000661154 to 0.000661154
Heightened Def Con from 0.000661154 to 0.000661154
Heightened Def Con from 0.000663552 to 0.000663552
Heightened Def Con from 0.000663552 to 0.000663552
Heightened Def Con from 0.000666751 to 0.000666751
Heightened Def Con from 0.000668048 to 0.000668048
Heightened Def Con from 0.000668048 to 0.000668048
Heightened Def Con from 0.000668048 to 0.000668048
Heightened Def Con from 0.000668048 to 0.000668048
Heightened Def Con from 0.00066815 ++to 0.00066815
Heightened Def Con from 0.00066815 to 0.00066815
Heightened Def Con from 0.000668248 +++to 0.000668248
Heightened Def Con from 0.000668248 ++++to 0.000668248
Heightened Def Con from 0.000668248 to 0.000668248
Heightened Def Con from 0.000668647 to 0.000668647
Heightened Def Con from 0.000668647 to 0.000668647
Heightened Def Con from 0.00066875 to 0.00066875
Heightened Def Con from 0.000669047 to 0.000669047
Heightened Def Con from 0.000669047 to 0.000669047
Heightened Def Con from 0.000670247 to 0.000670247
Heightened Def Con from 0.000670247 to 0.000670247
Heightened Def Con from 0.000670247 +++to 0.000670247
Heightened Def Con from 0.000670247 to 0.000670247
Heightened Def Con from 0.000672446 to 0.000672446
Heightened Def Con from 0.000674845 to 0.000674845
Heightened Def Con from 0.000674845 +++++++++to 0.000674845
Heightened Def Con from 0.000674845 to 0.000674845
Heightened Def Con from 0.000675045 to 0.000675045
Heightened Def Con from 0.000675045 ++to 0.000675045
Heightened Def Con from 0.000675045 to 0.000675045
Heightened Def Con from 0.000679042 to 0.000679042
Heightened Def Con from 0.000680144 to 0.000680144
Heightened Def Con from 0.000680144 to 0.000680144
Heightened Def Con from 0.000680144 to 0.000680144
Heightened Def Con from 0.000680641 to 0.000680641
Heightened Def Con from 0.000680641 to 0.000680641
Heightened Def Con from 0.000682041 ++++++to 0.000682041
Heightened Def Con from 0.00068284 to 0.00068284
Heightened Def Con from 0.00068284 to 0.00068284
Heightened Def Con from 0.00068464 +++++++++to 0.00068464
Heightened Def Con from 0.00068464 to 0.00068464
Heightened Def Con from 0.00068504 to 0.00068504
Heightened Def Con from 0.000685742 to 0.000685742
Heightened Def Con from 0.000685742 to 0.000685742
Heightened Def Con from 0.00068604 to 0.00068604
Heightened Def Con from 0.00068604 ++++++to 0.00068604
Heightened Def Con from 0.00068604 to 0.00068604
Heightened Def Con from 0.000687342 to 0.000687342
Heightened Def Con from 0.000687942 to 0.000687942
Heightened Def Con from 0.000687942 +++to 0.000687942
Heightened Def Con from 0.000687942 to 0.000687942
Heightened Def Con from 0.000688542 to 0.000688542
Heightened Def Con from 0.000688542 to 0.000688542
Heightened Def Con from 0.000688542 to 0.000688542
Heightened Def Con from 0.00068884 ++++to 0.00068884
Heightened Def Con from 0.00068884 to 0.00068884
Heightened Def Con from 0.000689839 +++++to 0.000689839
Heightened Def Con from 0.000689839 to 0.000689839
Heightened Def Con from 0.000691541 +to 0.000691541
Heightened Def Con from 0.000691541 +to 0.000691541
Heightened Def Con from 0.000691541 +to 0.000691541
Heightened Def Con from 0.000691541 to 0.000691541
Heightened Def Con from 0.000692239 to 0.000692239
Heightened Def Con from 0.000692838 +++++to 0.000692838
Heightened Def Con from 0.000692838 to 0.000692838
Heightened Def Con from 0.000693638 to 0.000693638
Heightened Def Con from 0.000693838 to 0.000693838
Heightened Def Con from 0.000694838 to 0.000694838
Heightened Def Con from 0.000694838 +++to 0.000694838
Heightened Def Con from 0.000694838 to 0.000694838
Heightened Def Con from 0.00069494 to 0.00069494
Heightened Def Con from 0.00069494 to 0.00069494
Heightened Def Con from 0.00069494 to 0.00069494
Heightened Def Con from 0.00069494 to 0.00069494
Heightened Def Con from 0.00069494 to 0.00069494
Heightened Def Con from 0.000695637 to 0.000695637
Heightened Def Con from 0.000695637 to 0.000695637
Heightened Def Con from 0.00069574 to 0.00069574
Heightened Def Con from 0.00069574 to 0.00069574
Heightened Def Con from 0.000695837 to 0.000695837
Heightened Def Con from 0.000695837 to 0.000695837
Heightened Def Con from 0.000695837 to 0.000695837
Heightened Def Con from 0.000699139 to 0.000699139
Heightened Def Con from 0.000699139 to 0.000699139
Heightened Def Con from 0.000699836 ++to 0.000699836
Heightened Def Con from 0.000699836 +++to 0.000699836
Heightened Def Con from 0.000699836 to 0.000699836
Heightened Def Con from 0.000701338 to 0.000701338
Heightened Def Con from 0.000701338 to 0.000701338
Heightened Def Con from 0.000701338 ++to 0.000701338
Heightened Def Con from 0.000701338 to 0.000701338
Heightened Def Con from 0.000701338 to 0.000701338
Heightened Def Con from 0.000702338 to 0.000702338
Heightened Def Con from 0.000702338 to 0.000702338
Heightened Def Con from 0.000703835 to 0.000703835
Heightened Def Con from 0.000703835 ++to 0.000703835
Heightened Def Con from 0.000703835 ++++to 0.000703835
Heightened Def Con from 0.000703835 to 0.000703835
Heightened Def Con from 0.000705035 to 0.000705035
Heightened Def Con from 0.000705235 to 0.000705235
Heightened Def Con from 0.000705235 to 0.000705235
Heightened Def Con from 0.000706736 +to 0.000706736
Heightened Def Con from 0.000706736 +to 0.000706736
Heightened Def Con from 0.000706736 to 0.000706736
Heightened Def Con from 0.000706736 ++to 0.000706736
Heightened Def Con from 0.000706736 +++to 0.000706736
Heightened Def Con from 0.000706736 to 0.000706736
Heightened Def Con from 0.000706736 +++++++++++++++++++to 0.000706737
Heightened Def Con from 0.000708433 to 0.000708433
Heightened Def Con from 0.000708433 to 0.000708433
Heightened Def Con from 0.000708433 to 0.000708433
Heightened Def Con from 0.000708935 to 0.000708935
Heightened Def Con from 0.000710032 to 0.000710032
Heightened Def Con from 0.000710032 ++++++to 0.000710032
Heightened Def Con from 0.000710032 to 0.000710032
Heightened Def Con from 0.000710631 to 0.000710631
Heightened Def Con from 0.000710733 to 0.000710733
Heightened Def Con from 0.000710733 +to 0.000710733
Heightened Def Con from 0.000710733 to 0.000710733
Heightened Def Con from 0.000710733 to 0.000710733
Heightened Def Con from 0.000710733 to 0.000710733
Heightened Def Con from 0.000710733 to 0.000710733
Heightened Def Con from 0.000718226 to 0.000718226
Heightened Def Con from 0.000718226 ++++++++to 0.000718226
Heightened Def Con from 0.000722424 +++++++to 0.000722424
Heightened Def Con from 0.000722526 to 0.000722526
Heightened Def Con from 0.000722526 to 0.000722526
Heightened Def Con from 0.000723223 to 0.000723223
Heightened Def Con from 0.000723326 to 0.000723326
Heightened Def Con from 0.000723326 +++to 0.000723326
Heightened Def Con from 0.000730817 to 0.000730817
Heightened Def Con from 0.000730817 ++to 0.000730817
Heightened Def Con from 0.000730817 to 0.000730817
Heightened Def Con from 0.00073092 to 0.00073092
Heightened Def Con from 0.00073092 to 0.00073092
Heightened Def Con from 0.00073092 to 0.00073092
Heightened Def Con from 0.00073092 to 0.00073092
Heightened Def Con from 0.00073092 to 0.00073092
Heightened Def Con from 0.00073092 to 0.00073092
Heightened Def Con from 0.000734015 +++to 0.000734015
Heightened Def Con from 0.000734615 +to 0.000734615
Heightened Def Con from 0.000734615 to 0.000734615
Heightened Def Con from 0.000734615 to 0.000734615
Heightened Def Con from 0.000735815 ++to 0.000735815
Heightened Def Con from 0.000735815 to 0.000735815
Heightened Def Con from 0.000737317 ++to 0.000737317
Heightened Def Con from 0.000737317 +++to 0.000737317
Heightened Def Con from 0.000737317 +++++to 0.000737317
Heightened Def Con from 0.000737317 ++++++to 0.000737317
Heightened Def Con from 0.000737317 ++++to 0.000737317
Heightened Def Con from 0.000737317 to 0.000737317
Heightened Def Con from 0.000739414 to 0.000739414
Heightened Def Con from 0.000740613 to 0.000740613
Heightened Def Con from 0.000740613 to 0.000740613
Heightened Def Con from 0.000742515 to 0.000742515
Heightened Def Con from 0.000742515 ++to 0.000742515
Heightened Def Con from 0.000742515 to 0.000742515
Heightened Def Con from 0.000742515 to 0.000742515
Heightened Def Con from 0.000743612 ++++++to 0.000743612
Heightened Def Con from 0.000743612 to 0.000743612
Heightened Def Con from 0.000746611 to 0.000746611
Heightened Def Con from 0.000746611 to 0.000746611
Heightened Def Con from 0.000749209 to 0.000749209
Heightened Def Con from 0.000751807 to 0.000751807
Heightened Def Con from 0.000752309 ++to 0.000752309
Heightened Def Con from 0.000752309 +++to 0.000752309
Heightened Def Con from 0.000752309 to 0.000752309
Heightened Def Con from 0.000752606 to 0.000752606
Heightened Def Con from 0.000752606 to 0.000752606
Heightened Def Con from 0.000752606 to 0.000752606
Heightened Def Con from 0.000752708 to 0.000752708
Heightened Def Con from 0.000752708 to 0.000752708
Heightened Def Con from 0.000753006 +++++++to 0.000753006
Heightened Def Con from 0.000754005 to 0.000754005
Heightened Def Con from 0.000754005 to 0.000754005
Heightened Def Con from 0.000754005 to 0.000754005
Heightened Def Con from 0.000755604 to 0.000755604
Heightened Def Con from 0.000756004 to 0.000756004
Heightened Def Con from 0.000759202 to 0.000759202
Heightened Def Con from 0.000759202 to 0.000759202
Heightened Def Con from 0.000759202 to 0.000759202
Heightened Def Con from 0.000759602 ++++to 0.000759602
Heightened Def Con from 0.000759602 to 0.000759602
Heightened Def Con from 0.000759802 +++++to 0.000759802
Heightened Def Con from 0.000762801 to 0.000762801
Heightened Def Con from 0.000764103 to 0.000764103
Heightened Def Con from 0.0007648 ++to 0.0007648
Heightened Def Con from 0.0007648 to 0.0007648
Heightened Def Con from 0.0007648 +++to 0.0007648
Heightened Def Con from 0.0007648 ++++++++++++to 0.0007648
Heightened Def Con from 0.0007648 ++++++++to 0.0007648
Heightened Def Con from 0.0007648 to 0.0007648
Heightened Def Con from 0.0007648 +++++++to 0.0007648
Heightened Def Con from 0.0007648 to 0.0007648
Heightened Def Con from 0.0007654 to 0.0007654
Heightened Def Con from 0.0007654 ++++++to 0.0007654
Heightened Def Con from 0.000768101 ++to 0.000768101
Heightened Def Con from 0.000768101 to 0.000768101
Heightened Def Con from 0.000769997 to 0.000769997
Heightened Def Con from 0.000770397 to 0.000770397
Heightened Def Con from 0.000770397 ++to 0.000770397
Heightened Def Con from 0.000770397 to 0.000770397
Heightened Def Con from 0.000770597 +++++++++to 0.000770597
Heightened Def Con from 0.000770597 to 0.000770597
Heightened Def Con from 0.000770699 to 0.000770699
Heightened Def Con from 0.000770797 to 0.000770797
Heightened Def Con from 0.000770797 to 0.000770797
Heightened Def Con from 0.000770797 to 0.000770797
Heightened Def Con from 0.000772498 ++to 0.000772498
Heightened Def Con from 0.000772498 +to 0.000772498
Heightened Def Con from 0.000773698 to 0.000773698
Heightened Def Con from 0.000773995 to 0.000773995
Heightened Def Con from 0.000773995 +to 0.000773995
Heightened Def Con from 0.000773995 +++to 0.000773995
Heightened Def Con from 0.000773995 +++++++to 0.000773995
Heightened Def Con from 0.000777193 to 0.000777193
Heightened Def Con from 0.000777193 to 0.000777193
Heightened Def Con from 0.000777193 ++++++to 0.000777193
Heightened Def Con from 0.000777193 to 0.000777193
Heightened Def Con from 0.000778392 +to 0.000778392
Heightened Def Con from 0.000778392 to 0.000778392
Heightened Def Con from 0.000778694 +to 0.000778694
Heightened Def Con from 0.000778694 to 0.000778694
Heightened Def Con from 0.000779494 to 0.000779494
Heightened Def Con from 0.000779494 to 0.000779494
Heightened Def Con from 0.00078059 to 0.00078059
Heightened Def Con from 0.00078059 to 0.00078059
Heightened Def Con from 0.000780893 +to 0.000780893
Heightened Def Con from 0.000780893 +to 0.000780893
Heightened Def Con from 0.000780893 +++to 0.000780893
Heightened Def Con from 0.000780893 to 0.000780893
Heightened Def Con from 0.00078199 to 0.00078199
Heightened Def Con from 0.000784491 +to 0.000784491
Heightened Def Con from 0.000784491 ++++to 0.000784491
Heightened Def Con from 0.000784491 ++to 0.000784491
Heightened Def Con from 0.000784988 to 0.000784988
Heightened Def Con from 0.000789386 to 0.000789386
Heightened Def Con from 0.000789386 to 0.000789386
Heightened Def Con from 0.000789386 +to 0.000789386
Heightened Def Con from 0.000789386 +to 0.000789386
Heightened Def Con from 0.000789386 to 0.000789386
Heightened Def Con from 0.000789386 to 0.000789386
Heightened Def Con from 0.000790888 to 0.000790888
Heightened Def Con from 0.000790888 to 0.000790888
Heightened Def Con from 0.000790888 to 0.000790888
Heightened Def Con from 0.000790888 to 0.000790888
Heightened Def Con from 0.000790888 to 0.000790888
Heightened Def Con from 0.000790888 to 0.000790888
Heightened Def Con from 0.000793385 to 0.000793385
Heightened Def Con from 0.000793488 +++++++++++++++++++to 0.000793489
Heightened Def Con from 0.000793888 to 0.000793888
Heightened Def Con from 0.000793888 +to 0.000793888
Heightened Def Con from 0.000793888 +++to 0.000793888
Heightened Def Con from 0.000793888 +++to 0.000793888
Heightened Def Con from 0.000793888 ++to 0.000793888
Heightened Def Con from 0.000793888 to 0.000793888
Heightened Def Con from 0.000793985 to 0.000793985
Heightened Def Con from 0.000793985 to 0.000793985
Heightened Def Con from 0.000794985 to 0.000794985
Heightened Def Con from 0.000794985 ++to 0.000794985
Heightened Def Con from 0.000794985 to 0.000794985
Heightened Def Con from 0.000794985 ++++++to 0.000794985
Heightened Def Con from 0.000794985 to 0.000794985
Heightened Def Con from 0.000795984 ++++++to 0.000795984
Heightened Def Con from 0.000795984 to 0.000795984
Heightened Def Con from 0.000799583 to 0.000799583
Heightened Def Con from 0.000799583 +++++to 0.000799583
Heightened Def Con from 0.000799583 to 0.000799583
Heightened Def Con from 0.000799983 to 0.000799983
Heightened Def Con from 0.000801382 to 0.000801382
Heightened Def Con from 0.000801382 ++++++to 0.000801382
Heightened Def Con from 0.000801382 to 0.000801382
Heightened Def Con from 0.000804683 to 0.000804683
Heightened Def Con from 0.000804683 +++to 0.000804683
Heightened Def Con from 0.000804683 to 0.000804683
Heightened Def Con from 0.00080538 to 0.00080538
Heightened Def Con from 0.00080538 ++++++to 0.00080538
Heightened Def Con from 0.00080538 ++to 0.00080538
Heightened Def Con from 0.00080538 +++++++++to 0.00080538
Heightened Def Con from 0.00080578 to 0.00080578
Heightened Def Con from 0.00080618 to 0.00080618
Heightened Def Con from 0.00080618 +to 0.00080618
Heightened Def Con from 0.00080618 to 0.00080618
Heightened Def Con from 0.00080618 ++++++++++++to 0.00080618
Heightened Def Con from 0.00080618 +++++++++++to 0.00080618
Heightened Def Con from 0.00080618 ++++++++++to 0.00080618
Heightened Def Con from 0.00080618 ++++++++++to 0.00080618
Heightened Def Con from 0.00080618 ++++++++++to 0.00080618
Heightened Def Con from 0.00080618 ++++++++++to 0.00080618
Heightened Def Con from 0.00080618 +++++++++to 0.00080618
Heightened Def Con from 0.00080618 to 0.00080618
Heightened Def Con from 0.00080618 to 0.00080618
Heightened Def Con from 0.000808579 +to 0.000808579
Heightened Def Con from 0.000808579 to 0.000808579
Heightened Def Con from 0.000808579 to 0.000808579
Heightened Def Con from 0.000808579 to 0.000808579
Heightened Def Con from 0.000808579 to 0.000808579
Heightened Def Con from 0.000808579 to 0.000808579
Heightened Def Con from 0.000808979 ++++++to 0.000808979
Heightened Def Con from 0.000809481 ++to 0.000809481
Heightened Def Con from 0.000809481 to 0.000809481
Heightened Def Con from 0.000809481 +to 0.000809481
Heightened Def Con from 0.000809481 to 0.000809481
Heightened Def Con from 0.000809579 to 0.000809579
Heightened Def Con from 0.000809579 +++++to 0.000809579
Heightened Def Con from 0.000809579 to 0.000809579
Heightened Def Con from 0.000811281 to 0.000811281
Heightened Def Con from 0.000811778 ++++++to 0.000811778
Heightened Def Con from 0.000811778 to 0.000811778
Heightened Def Con from 0.000811978 to 0.000811978
Heightened Def Con from 0.00081268 to 0.00081268
Heightened Def Con from 0.00081268 to 0.00081268
Heightened Def Con from 0.000819375 to 0.000819375
Heightened Def Con from 0.000819974 to 0.000819974
Heightened Def Con from 0.000820374 to 0.000820374
Heightened Def Con from 0.000820374 to 0.000820374
Heightened Def Con from 0.000821876 ++to 0.000821876
Heightened Def Con from 0.000821876 +++++to 0.000821876
Heightened Def Con from 0.000821876 ++to 0.000821876
Heightened Def Con from 0.000821876 to 0.000821876
Heightened Def Con from 0.000821974 +to 0.000821974
Heightened Def Con from 0.000821974 to 0.000821974
Heightened Def Con from 0.000822773 to 0.000822773
Heightened Def Con from 0.000822773 ++++++++to 0.000822773
Heightened Def Con from 0.000822773 to 0.000822773
Heightened Def Con from 0.000822876 to 0.000822876
Heightened Def Con from 0.000822876 ++to 0.000822876
Heightened Def Con from 0.000822876 to 0.000822876
Heightened Def Con from 0.000822876 +++to 0.000822876
Heightened Def Con from 0.000822876 +++to 0.000822876
Heightened Def Con from 0.000822876 +++to 0.000822876
Heightened Def Con from 0.000822876 to 0.000822876
Heightened Def Con from 0.000822973 to 0.000822973
Heightened Def Con from 0.000825972 to 0.000825972
Heightened Def Con from 0.000825972 ++to 0.000825972
Heightened Def Con from 0.000825972 +to 0.000825972
Heightened Def Con from 0.000825972 +to 0.000825972
Heightened Def Con from 0.000825972 to 0.000825972
Heightened Def Con from 0.000825972 to 0.000825972
Heightened Def Con from 0.000826172 +to 0.000826172
Heightened Def Con from 0.000826172 to 0.000826172
Heightened Def Con from 0.000826572 to 0.000826572
Heightened Def Con from 0.000826572 +++++++to 0.000826572
Heightened Def Con from 0.000828971 to 0.000828971
Heightened Def Con from 0.000828971 +++++to 0.000828971
Heightened Def Con from 0.000829073 to 0.000829073
Heightened Def Con from 0.000829073 to 0.000829073
Heightened Def Con from 0.000829073 to 0.000829073
Heightened Def Con from 0.000829171 to 0.000829171
Heightened Def Con from 0.000829171 to 0.000829171
Heightened Def Con from 0.000829371 to 0.000829371
Heightened Def Con from 0.000829371 ++++++++to 0.000829371
Heightened Def Con from 0.000829371 to 0.000829371
Heightened Def Con from 0.000829673 to 0.000829673
Heightened Def Con from 0.000829673 to 0.000829673
Heightened Def Con from 0.000829673 ++to 0.000829673
Heightened Def Con from 0.000829673 to 0.000829673
Heightened Def Con from 0.000829673 to 0.000829673
Heightened Def Con from 0.000830873 ++to 0.000830873
Heightened Def Con from 0.000830873 +++to 0.000830873
Heightened Def Con from 0.000830873 to 0.000830873
Heightened Def Con from 0.000830873 +++to 0.000830873
Heightened Def Con from 0.000830873 +++to 0.000830873
Heightened Def Con from 0.000830873 to 0.000830873
Heightened Def Con from 0.00083157 to 0.00083157
Heightened Def Con from 0.000833969 +to 0.000833969
Heightened Def Con from 0.000833969 +to 0.000833969
Heightened Def Con from 0.000833969 to 0.000833969
Heightened Def Con from 0.000834471 to 0.000834471
Heightened Def Con from 0.000834471 to 0.000834471
Heightened Def Con from 0.000834471 to 0.000834471
Heightened Def Con from 0.000834471 to 0.000834471
Heightened Def Con from 0.000834471 to 0.000834471
Heightened Def Con from 0.000834471 to 0.000834471
Heightened Def Con from 0.000834471 to 0.000834471
Heightened Def Con from 0.000834968 ++to 0.000834968
Heightened Def Con from 0.00083827 to 0.00083827
Heightened Def Con from 0.000839367 to 0.000839367
Heightened Def Con from 0.000839367 to 0.000839367
Heightened Def Con from 0.000839367 to 0.000839367
Heightened Def Con from 0.000840167 to 0.000840167
Heightened Def Con from 0.000840167 to 0.000840167
Heightened Def Con from 0.000840167 ++to 0.000840167
Heightened Def Con from 0.000840167 +to 0.000840167
Heightened Def Con from 0.000840167 to 0.000840167
Heightened Def Con from 0.000840167 ++to 0.000840167
Heightened Def Con from 0.000840167 to 0.000840167
Heightened Def Con from 0.000840766 +to 0.000840766
Heightened Def Con from 0.000840766 +++to 0.000840766
Heightened Def Con from 0.000840766 to 0.000840766
Heightened Def Con from 0.000841366 to 0.000841366
Heightened Def Con from 0.000841869 +to 0.000841869
Heightened Def Con from 0.000841869 to 0.000841869
Heightened Def Con from 0.000843766 to 0.000843766
Heightened Def Con from 0.000843766 +++++++++to 0.000843766
Heightened Def Con from 0.000843766 to 0.000843766
Heightened Def Con from 0.000844668 to 0.000844668
Heightened Def Con from 0.000844668 ++to 0.000844668
Heightened Def Con from 0.000844668 +to 0.000844668
Heightened Def Con from 0.000844668 to 0.000844668
Heightened Def Con from 0.000844668 to 0.000844668
Heightened Def Con from 0.000846068 to 0.000846068
Heightened Def Con from 0.000846068 to 0.000846068
Heightened Def Con from 0.000846068 to 0.000846068
Heightened Def Con from 0.000846068 to 0.000846068
Heightened Def Con from 0.000846468 to 0.000846468
Heightened Def Con from 0.000846468 to 0.000846468
Heightened Def Con from 0.000846468 to 0.000846468
Heightened Def Con from 0.000846468 to 0.000846468
Heightened Def Con from 0.000846468 ++to 0.000846468
Heightened Def Con from 0.000846468 +++to 0.000846468
Heightened Def Con from 0.000846468 +++to 0.000846468
Heightened Def Con from 0.000846468 +to 0.000846468
Heightened Def Con from 0.000846468 ++++to 0.000846468
Heightened Def Con from 0.000848364 to 0.000848364
Heightened Def Con from 0.000849364 to 0.000849364
Heightened Def Con from 0.000849364 to 0.000849364
Heightened Def Con from 0.000849364 ++++to 0.000849364
Heightened Def Con from 0.000849364 to 0.000849364
Heightened Def Con from 0.000850466 +to 0.000850466
Heightened Def Con from 0.000850466 ++to 0.000850466
Heightened Def Con from 0.000850466 ++++to 0.000850466
Heightened Def Con from 0.000850466 +++to 0.000850466
Heightened Def Con from 0.000850466 to 0.000850466
Heightened Def Con from 0.000852563 to 0.000852563
Heightened Def Con from 0.000852563 +++to 0.000852563
Heightened Def Con from 0.000852563 ++to 0.000852563
Heightened Def Con from 0.000852563 to 0.000852563
Heightened Def Con from 0.000852763 +++++++++to 0.000852763
Heightened Def Con from 0.000852763 to 0.000852763
Heightened Def Con from 0.000852866 +++to 0.000852866
Heightened Def Con from 0.000852866 to 0.000852866
Heightened Def Con from 0.000855064 to 0.000855064
Heightened Def Con from 0.000855064 to 0.000855064
Heightened Def Con from 0.000855064 to 0.000855064
Heightened Def Con from 0.000855761 to 0.000855761
Heightened Def Con from 0.000855761 +to 0.000855761
Heightened Def Con from 0.000855761 to 0.000855761
Heightened Def Con from 0.000855761 ++++++++++++to 0.000855761
Heightened Def Con from 0.000855761 +++++++++++to 0.000855761
Heightened Def Con from 0.000855761 ++++++++++to 0.000855761
Heightened Def Con from 0.000855761 ++++++++++to 0.000855761
Heightened Def Con from 0.000855761 ++++++++++to 0.000855761
Heightened Def Con from 0.000855761 ++++++++++to 0.000855761
Heightened Def Con from 0.000855761 +++++++++to 0.000855761
Heightened Def Con from 0.000855761 +++to 0.000855761
Heightened Def Con from 0.000855761 to 0.000855761
Heightened Def Con from 0.000855761 to 0.000855761
Heightened Def Con from 0.000856761 to 0.000856761
Heightened Def Con from 0.000858161 to 0.000858161
Heightened Def Con from 0.000858161 to 0.000858161
Heightened Def Con from 0.000861862 to 0.000861862
Heightened Def Con from 0.000863159 +to 0.000863159
Heightened Def Con from 0.000863159 to 0.000863159
Heightened Def Con from 0.000863559 to 0.000863559
Heightened Def Con from 0.000863559 +++++++to 0.000863559
Heightened Def Con from 0.000864558 to 0.000864558
Heightened Def Con from 0.000864558 to 0.000864558
Heightened Def Con from 0.000864558 to 0.000864558
Heightened Def Con from 0.000867957 ++++to 0.000867957
Heightened Def Con from 0.000867957 to 0.000867957
Heightened Def Con from 0.000868957 to 0.000868957
Heightened Def Con from 0.000868957 ++++to 0.000868957
Heightened Def Con from 0.000868957 to 0.000868957
Heightened Def Con from 0.000869356 +++to 0.000869356
Heightened Def Con from 0.000869356 to 0.000869356
Heightened Def Con from 0.000869356 to 0.000869356
Heightened Def Con from 0.000871156 ++++++to 0.000871156
Heightened Def Con from 0.000871156 to 0.000871156
Heightened Def Con from 0.000871955 ++to 0.000871955
Heightened Def Con from 0.000871955 to 0.000871955
Heightened Def Con from 0.000871955 +to 0.000871955
Heightened Def Con from 0.000871955 to 0.000871955
Heightened Def Con from 0.000872955 to 0.000872955
Heightened Def Con from 0.000872955 +to 0.000872955
Heightened Def Con from 0.000872955 to 0.000872955
Heightened Def Con from 0.000872955 +to 0.000872955
Heightened Def Con from 0.000872955 to 0.000872955
Heightened Def Con from 0.000872955 ++++++to 0.000872955
Heightened Def Con from 0.000872955 to 0.000872955
Heightened Def Con from 0.000874354 to 0.000874354
Heightened Def Con from 0.000874554 +to 0.000874554
Heightened Def Con from 0.000874554 ++to 0.000874554
Heightened Def Con from 0.000874554 +++to 0.000874554
Heightened Def Con from 0.000874554 to 0.000874554
Heightened Def Con from 0.000877456 to 0.000877456
Heightened Def Con from 0.000877456 +to 0.000877456
Heightened Def Con from 0.000877456 +++to 0.000877456
Heightened Def Con from 0.000877456 to 0.000877456
Heightened Def Con from 0.000877856 to 0.000877856
Heightened Def Con from 0.000878553 to 0.000878553
Heightened Def Con from 0.000878553 to 0.000878553
Heightened Def Con from 0.000878553 to 0.000878553
Heightened Def Con from 0.000878553 to 0.000878553
Heightened Def Con from 0.000878553 +to 0.000878553
Heightened Def Con from 0.000878553 +to 0.000878553
Heightened Def Con from 0.000878553 to 0.000878553
Heightened Def Con from 0.000879552 to 0.000879552
Heightened Def Con from 0.000879552 +to 0.000879552
Heightened Def Con from 0.000879952 to 0.000879952
Heightened Def Con from 0.000881654 +to 0.000881654
Heightened Def Con from 0.000881654 to 0.000881654
Heightened Def Con from 0.000881951 to 0.000881951
Heightened Def Con from 0.000881951 to 0.000881951
Heightened Def Con from 0.000883151 to 0.000883151
Heightened Def Con from 0.000885052 +++++++++++++++++++to 0.000885053
Heightened Def Con from 0.000885452 to 0.000885452
Heightened Def Con from 0.000885452 +to 0.000885452
Heightened Def Con from 0.000885452 +++to 0.000885452
Heightened Def Con from 0.000885452 +++to 0.000885452
Heightened Def Con from 0.000885452 to 0.000885452
Heightened Def Con from 0.000886949 +to 0.000886949
Heightened Def Con from 0.000886949 +to 0.000886949
Heightened Def Con from 0.000886949 ++++++to 0.000886949
Heightened Def Con from 0.000888549 to 0.000888549
Heightened Def Con from 0.000888549 to 0.000888549
Heightened Def Con from 0.000892346 to 0.000892346
Heightened Def Con from 0.000892946 to 0.000892946
Heightened Def Con from 0.000892946 to 0.000892946
Heightened Def Con from 0.000894248 to 0.000894248
Heightened Def Con from 0.000894248 to 0.000894248
Heightened Def Con from 0.000894248 +to 0.000894248
Heightened Def Con from 0.000894248 to 0.000894248
Heightened Def Con from 0.000894248 ++to 0.000894248
Heightened Def Con from 0.000894248 to 0.000894248
Heightened Def Con from 0.000894745 to 0.000894745
Heightened Def Con from 0.000894745 to 0.000894745
Heightened Def Con from 0.000894745 +to 0.000894745
Heightened Def Con from 0.000894745 ++++++to 0.000894745
Heightened Def Con from 0.000894745 to 0.000894745
Heightened Def Con from 0.000894847 to 0.000894847
Heightened Def Con from 0.000894945 +++to 0.000894945
Heightened Def Con from 0.000894945 to 0.000894945
Heightened Def Con from 0.000898344 ++++to 0.000898344
Heightened Def Con from 0.000898344 to 0.000898344
.step v1=0.1
.step v1=0.2
.step v1=0.3
.step v1=0.4
.step v1=0.5
.step v1=0.6
.step v1=0.7
.step v1=0.8
.step v1=0.9
.step v1=1


Measurement: t1
  step	t1	FROM	TO
     1	9.98046e-05	1.95421e-07	0.0001
     2	9.99582e-05	4.18371e-08	0.0001
     3	9.993e-05	7.00173e-08	0.0001
     4	9.98767e-05	1.23252e-07	0.0001
     5	9.98188e-05	1.81175e-07	0.0001
     6	9.99692e-05	3.08345e-08	0.0001
     7	9.99107e-05	8.93374e-08	0.0001
     8	9.99172e-05	8.27731e-08	0.0001
     9	9.99383e-05	6.17499e-08	0.0001
    10	9.99286e-05	7.13936e-08	0.0001
    11	9.99947e-05	5.25899e-09	0.0001

Measurement: t2
  step	t2	FROM	TO
     1	9.78053e-05	2.19469e-06	0.0001
     2	9.80037e-05	1.99625e-06	0.0001
     3	9.80147e-05	1.98526e-06	0.0001
     4	9.80007e-05	1.99928e-06	0.0001
     5	9.79793e-05	2.02073e-06	0.0001
     6	9.81637e-05	1.83635e-06	0.0001
     7	9.81367e-05	1.86335e-06	0.0001
     8	9.81742e-05	1.82583e-06	0.0001
     9	9.82245e-05	1.77554e-06	0.0001
    10	9.82424e-05	1.75756e-06	0.0001
    11	9.8335e-05	1.66497e-06	0.0001

Measurement: frequenz
  step	abs(10/(t2-t1))
     1	5.00183e+06
     2	5.11662e+06
     3	5.22126e+06
     4	5.33041e+06
     5	5.4361e+06
     6	5.5386e+06
     7	5.63695e+06
     8	5.73706e+06
     9	5.83503e+06
    10	5.93062e+06
    11	6.02515e+06


Date: Thu Jul  2 21:26:03 2026
Total elapsed time: 58.676 seconds.

tnom = 27
temp = 27
method = modified trap
totiter = 636067
traniter = 635853
tranpoints = 115741
accept = 77978
rejected = 38895
matrix size = 73
fillins = 87
solver = Normal
Avg thread counts: 1.0/1.1/1.0/1.0
Matrix Compiler1: 7.88 KB object code size  2.1/1.3/[1.0]
Matrix Compiler2: 7.54 KB object code size  1.4/1.1/[0.8]

